data_image0
_chemical_formula_structural       Ni12
_chemical_formula_sum              "Ni12"
_cell_length_a       7.95369
_cell_length_b       3.557
_cell_length_c       18.9768
_cell_angle_alpha    90
_cell_angle_beta     90
_cell_angle_gamma    90

_space_group_name_H-M_alt    "P 1"
_space_group_IT_number       1

loop_
  _space_group_symop_operation_xyz
  'x, y, z'

loop_
  _atom_site_type_symbol
  _atom_site_label
  _atom_site_symmetry_multiplicity
  _atom_site_fract_x
  _atom_site_fract_y
  _atom_site_fract_z
  _atom_site_occupancy
  Ni  Ni1       1.0  0.00000  0.00000  0.39522  1.0000
  Ni  Ni2       1.0  0.80000  0.50000  0.43713  1.0000
  Ni  Ni3       1.0  0.50000  0.50000  0.39522  1.0000
  Ni  Ni4       1.0  0.30000  0.00000  0.43713  1.0000
  Ni  Ni5       1.0  0.60000  0.00000  0.47904  1.0000
  Pt  Pt6       1.0  0.40000  0.50000  0.52096  1.0000
  Ni  Ni7       1.0  0.10000  0.50000  0.47904  1.0000
  Pt  Pt8       1.0  0.90000  0.00000  0.52096  1.0000
  Fe  Fe9       1.0  0.20000  0.00000  0.56287  1.0000
  Cu  Cu10      1.0  0.00000  0.50000  0.60478  1.0000
  Fe  Fe11      1.0  0.70000  0.50000  0.56287  1.0000
  Cu  Cu12      1.0  0.50000  0.00000  0.60478  1.0000
